!# LISTE PARAMETRES MODELE 
!######### PARAMETRES FIXES ##########!
!# NLEV=65                           #!
!# NXPT=1000                         #!
!#####################################!

&NAMDIM
  NTIMESTEP=2250
  RDT=32.d0
  RDX=500.d0
  RDZ=312.d0
  LALGOR =.TRUE.
  LALIAZ=.TRUE.
  NSITER=1
  NSLTER=3
  NDLNPR=1
  NVERINT=1
  LSETTLS_T=.FALSE.
  LDLOGPIS=.FALSE.
  LPISADV_2D=.TRUE.
  LBIGW=.TRUE.
  LQBBC=.TRUE.
  LSILAPL=.TRUE.
/
&NAMPHY
  LORO_QLH=.FALSE.
  LORO_LNH=.FALSE.
  LORO_SCHAR=.TRUE.
  LORO_POT=.FALSE.
  LBUL_HOT=.FALSE.
  LBUL_WARM=.FALSE.
  LBUL_COLD=.FALSE.
  LORO_NLNH=.FALSE.
  LORO_NHMW=.FALSE.
  LORO_NOFLOW=.FALSE.
  LORO_SHEAR=.FALSE.
/
&NAMDYN
  C_SYSTEM="EE"
  C_SCHEME="SI"
  C_ADJUST="NL"
  C_ADVECT="NL"
  C_TRUNCS="L"
  C_TRUNCO="O"
  C_OPTION="Z"
  LPERIO=.FALSE.
  LSPONGE=.FALSE.
  LHDIFF=.FALSE. 
  LNUDGING=.FALSE.
  RTST=350.d0
  RSITRA=0.25d0
  RSIPR=90000.d0
  RDXTAU=0.d0
  RDAMPZ=0.d0
  RDELTR=1.d0
  RMUW=1.2d0 
  RMUV=0.d0
/
&NAMVIEW
  NFREQOUTPUT=-100
  NFIRST=0
  LPRINTLEV=.TRUE.
  LADV_TEST=.FALSE.
/

