!# LISTE PARAMETRES MODELE 
!######### PARAMETRES FIXES ##########!
!# NLEV=65                           #!
!# NXPT=1000                         #!
!#####################################!

&NAMDIM
  NTIMESTEP=2250
  RDT=32.d0
  RDX=500.d0
  RDZ=312.d0
  NSITER=1
  NSLTER=3
  NVERINT=1
  LSLAG=.TRUE.
  LSETTLS=.FALSE.
  LADV_SPLIT=.FALSE.
  LADV_PIS2D=.TRUE.
  LFCT_MONO=.FALSE.
  LTRAJH_INT=.FALSE.
/
&NAMPHY
  NCASE=2
  C_OROTYP="M"
  RHMAX=0.d0
  RU00=10.d0
  RDELTP=1.d0 
  LN000=.FALSE.
  LN001=.FALSE.
  LN002=.TRUE.
  LPSTA=.FALSE.
/
&NAMDYN
  C_ADVECT="N"
  C_OPTION="Z"
  LPERIO=.FALSE.
  LALIAZ=.FALSE.
  RDELTR=1.d0
/
&NAMVIEW
  NFREQOUTPUT=-100
  LPRINTLEV=.TRUE.
/

